all:
	sslittle-na-sstrix-gcc -o main main.c

run: main
	sim-outorder main